Version 4
SHEET 1 880 680
SYMBOL OpAmps\\LT1001 144 96 R0
SYMATTR InstName U1
SYMBOL OpAmps\\LT1001 432 96 R0
SYMATTR InstName U2
SYMBOL OpAmps\\LT1001 288 272 R0
SYMATTR InstName U3
