Version 4
SHEET 1 4084 836
WIRE 1952 0 1888 0
WIRE 2080 0 2016 0
WIRE 2336 0 2080 0
WIRE 864 16 480 16
WIRE 2080 16 2080 0
WIRE 2560 16 2464 16
WIRE 2672 16 2624 16
WIRE 2928 16 2672 16
WIRE 3168 16 3120 16
WIRE 3296 16 3232 16
WIRE 3504 16 3296 16
WIRE 3728 16 3680 16
WIRE 3840 16 3792 16
WIRE 4064 16 3840 16
WIRE 2672 32 2672 16
WIRE 3296 32 3296 16
WIRE 624 48 544 48
WIRE 752 48 624 48
WIRE 3840 48 3840 16
WIRE 544 80 544 48
WIRE 864 80 864 16
WIRE 944 80 864 80
WIRE 1088 80 1024 80
WIRE 128 112 96 112
WIRE 240 112 208 112
WIRE 1744 112 1664 112
WIRE 1888 112 1888 0
WIRE 1888 112 1824 112
WIRE 1952 112 1888 112
WIRE 2080 112 2080 96
WIRE 2080 112 2016 112
WIRE 2224 112 2080 112
WIRE 2336 128 2336 0
WIRE 2336 128 2288 128
WIRE 2464 128 2464 16
WIRE 2464 128 2416 128
WIRE 2560 128 2464 128
WIRE 2672 128 2672 112
WIRE 2672 128 2624 128
WIRE 2800 128 2672 128
WIRE 2224 144 2208 144
WIRE 2928 144 2928 16
WIRE 2928 144 2864 144
WIRE 2976 144 2928 144
WIRE 3120 144 3120 16
WIRE 3120 144 3056 144
WIRE 3168 144 3120 144
WIRE 3296 144 3296 112
WIRE 3296 144 3232 144
WIRE 3392 144 3296 144
WIRE 752 160 752 128
WIRE 1888 160 1888 112
WIRE 2208 160 2208 144
WIRE 2800 160 2784 160
WIRE 3504 160 3504 16
WIRE 3504 160 3456 160
WIRE 3552 160 3504 160
WIRE 3680 160 3680 16
WIRE 3680 160 3632 160
WIRE 3728 160 3680 160
WIRE 3840 160 3840 128
WIRE 3840 160 3792 160
WIRE 3936 160 3840 160
WIRE 96 176 96 112
WIRE 128 176 96 176
WIRE 240 176 240 112
WIRE 240 176 192 176
WIRE 976 176 976 160
WIRE 2784 176 2784 160
WIRE 3392 176 3376 176
WIRE 4064 176 4064 16
WIRE 4064 176 4000 176
WIRE 4080 176 4064 176
WIRE 128 192 -32 192
WIRE 240 192 192 192
WIRE 864 192 864 80
WIRE 944 192 864 192
WIRE 3376 192 3376 176
WIRE 3936 192 3920 192
WIRE 128 208 -32 208
WIRE 240 208 192 208
WIRE 480 208 480 16
WIRE 624 208 624 128
WIRE 624 208 480 208
WIRE 1088 208 1088 80
WIRE 1088 208 1008 208
WIRE 3680 208 3680 160
WIRE 3920 208 3920 192
WIRE 128 224 96 224
WIRE 240 224 192 224
WIRE 752 224 688 224
WIRE 944 224 752 224
WIRE 240 256 240 224
WIRE 976 256 976 240
WIRE 624 288 624 208
WIRE 752 288 752 224
WIRE 688 304 688 224
WIRE 688 368 624 368
WIRE 752 368 688 368
WIRE 688 384 688 368
WIRE 128 576 96 576
WIRE 240 576 208 576
WIRE 96 640 96 576
WIRE 128 640 96 640
WIRE 240 640 240 576
WIRE 240 640 192 640
WIRE 128 656 -32 656
WIRE 240 656 192 656
WIRE 128 672 -32 672
WIRE 240 672 192 672
WIRE 128 688 96 688
WIRE 240 688 192 688
WIRE 240 720 240 688
FLAG 240 256 0
FLAG -112 -224 0
FLAG -208 -304 0
FLAG -112 -304 V+
FLAG -208 -224 V-
FLAG 240 192 V+
FLAG 96 224 V-
FLAG -32 352 0
FLAG -32 32 0
FLAG 240 720 0
FLAG 240 656 V+
FLAG 96 688 V-
FLAG -32 816 0
FLAG -32 496 0
FLAG 976 160 V+
FLAG 544 160 0
FLAG 976 256 V-
FLAG 688 384 0
FLAG 1888 240 0
FLAG 2464 208 0
FLAG 3120 224 0
FLAG 3680 288 0
FLAG 1664 192 0
FLAG 2208 160 0
FLAG 2256 96 V+
FLAG 2256 160 V-
FLAG 2784 176 0
FLAG 2832 112 V+
FLAG 2832 176 V-
FLAG 3376 192 0
FLAG 3424 128 V+
FLAG 3424 192 V-
FLAG 3920 208 0
FLAG 3968 144 V+
FLAG 3968 208 V-
SYMBOL ad620 160 176 R0
SYMATTR InstName U1
SYMBOL res 224 96 R90
WINDOW 0 0 56 VBottom 2
WINDOW 3 32 56 VTop 2
SYMATTR InstName R1
SYMATTR Value 1k
SYMBOL voltage -112 -320 R0
WINDOW 123 0 0 Left 0
WINDOW 39 0 0 Left 0
SYMATTR InstName V1
SYMATTR Value 12
SYMBOL voltage -208 -320 R0
WINDOW 123 0 0 Left 0
WINDOW 39 0 0 Left 0
SYMATTR InstName V2
SYMATTR Value 12
SYMBOL voltage -32 256 R0
WINDOW 123 0 0 Left 0
WINDOW 39 0 0 Left 0
SYMATTR InstName V3
SYMATTR Value 0.1m
SYMBOL voltage -32 128 R180
WINDOW 0 24 96 Left 2
WINDOW 3 24 16 Left 2
WINDOW 123 0 0 Left 0
WINDOW 39 0 0 Left 0
SYMATTR InstName V4
SYMATTR Value 0.2m
SYMBOL res 224 560 R90
WINDOW 0 0 56 VBottom 2
WINDOW 3 32 56 VTop 2
SYMATTR InstName R2
SYMATTR Value 1k
SYMBOL voltage -32 720 R0
WINDOW 123 0 0 Left 0
WINDOW 39 0 0 Left 0
SYMATTR InstName V5
SYMATTR Value 0.1m
SYMBOL voltage -32 592 R180
WINDOW 0 24 96 Left 2
WINDOW 3 24 16 Left 2
WINDOW 123 0 0 Left 0
WINDOW 39 0 0 Left 0
SYMATTR InstName V6
SYMATTR Value 0.2m
SYMBOL lm128 176 640 R0
SYMATTR InstName U2
SYMBOL voltage 544 64 R0
WINDOW 3 24 152 Left 2
WINDOW 123 24 124 Left 2
WINDOW 39 0 0 Left 0
SYMATTR Value SINE(0 1 1k)
SYMATTR Value2 AC 1
SYMATTR InstName V7
SYMBOL OpAmps\\UniversalOpAmp2 976 208 R0
SYMATTR InstName U3
SYMBOL res 608 32 R0
SYMATTR InstName R3
SYMATTR Value 27k
SYMBOL res 736 32 R0
SYMATTR InstName R4
SYMATTR Value 27k
SYMBOL res 608 272 R0
SYMATTR InstName R5
SYMATTR Value 27k
SYMBOL res 736 272 R0
SYMATTR InstName R8
SYMATTR Value 27k
SYMBOL res 1040 64 R90
WINDOW 0 0 56 VBottom 2
WINDOW 3 32 56 VTop 2
SYMATTR InstName R9
SYMATTR Value 27k
SYMBOL cap 672 304 R0
SYMATTR InstName C1
SYMATTR Value 0.1µ
SYMBOL cap 736 160 R0
SYMATTR InstName C2
SYMATTR Value 0.1µ
SYMBOL res 1840 96 R90
WINDOW 0 0 56 VBottom 2
WINDOW 3 32 56 VTop 2
SYMATTR InstName R6
SYMATTR Value 230k
SYMBOL cap 2016 96 R90
WINDOW 0 0 32 VBottom 2
WINDOW 3 32 32 VTop 2
SYMATTR InstName C3
SYMATTR Value 56n
SYMBOL cap 2016 -16 R90
WINDOW 0 0 32 VBottom 2
WINDOW 3 32 32 VTop 2
SYMATTR InstName C4
SYMATTR Value 56n
SYMBOL res 2064 0 R0
SYMATTR InstName R7
SYMATTR Value 1.23Meg
SYMBOL res 1872 144 R0
SYMATTR InstName R10
SYMATTR Value 9.28k
SYMBOL res 2432 112 R90
WINDOW 0 0 56 VBottom 2
WINDOW 3 32 56 VTop 2
SYMATTR InstName R11
SYMATTR Value 215k
SYMBOL res 2448 112 R0
SYMATTR InstName R12
SYMATTR Value 8.68k
SYMBOL cap 2624 112 R90
WINDOW 0 0 32 VBottom 2
WINDOW 3 32 32 VTop 2
SYMATTR InstName C5
SYMATTR Value 91n
SYMBOL cap 2624 0 R90
WINDOW 0 0 32 VBottom 2
WINDOW 3 32 32 VTop 2
SYMATTR InstName C6
SYMATTR Value 91n
SYMBOL res 2656 16 R0
SYMATTR InstName R13
SYMATTR Value 1.15Meg
SYMBOL res 3104 128 R0
SYMATTR InstName R15
SYMATTR Value 22.8k
SYMBOL cap 3232 0 R90
WINDOW 0 0 32 VBottom 2
WINDOW 3 32 32 VTop 2
SYMATTR InstName C7
SYMATTR Value 68n
SYMBOL res 3280 16 R0
SYMATTR InstName R16
SYMATTR Value 465k
SYMBOL cap 3232 128 R90
WINDOW 0 0 32 VBottom 2
WINDOW 3 32 32 VTop 2
SYMATTR InstName C8
SYMATTR Value 68n
SYMBOL res 3648 144 R90
WINDOW 0 0 56 VBottom 2
WINDOW 3 32 56 VTop 2
SYMATTR InstName R17
SYMATTR Value 212k
SYMBOL res 3664 192 R0
SYMATTR InstName R18
SYMATTR Value 22.3k
SYMBOL cap 3792 0 R90
WINDOW 0 0 32 VBottom 2
WINDOW 3 32 32 VTop 2
SYMATTR InstName C9
SYMATTR Value 82n
SYMBOL cap 3792 144 R90
WINDOW 0 0 32 VBottom 2
WINDOW 3 32 32 VTop 2
SYMATTR InstName C10
SYMATTR Value 82n
SYMBOL res 3824 32 R0
SYMATTR InstName R19
SYMATTR Value 461k
SYMBOL voltage 1664 96 R0
WINDOW 3 24 152 Left 2
WINDOW 123 24 124 Left 2
WINDOW 39 0 0 Left 0
SYMATTR Value SINE(0 1 1k)
SYMATTR Value2 AC 1
SYMATTR InstName V8
SYMBOL OpAmps\\LT1001 2256 64 R0
SYMATTR InstName U5
SYMBOL OpAmps\\LT1001 2832 80 R0
SYMATTR InstName U4
SYMBOL OpAmps\\LT1001 3424 96 R0
SYMATTR InstName U6
SYMBOL OpAmps\\LT1001 3968 112 R0
SYMATTR InstName U7
TEXT 184 -64 Left 2 !.include lib/sub/ad620.cir
TEXT 184 -32 Left 2 ;.tran 10m
TEXT 184 -88 Left 2 !.include lib/sub/INA128.LIB
TEXT 128 720 Left 2 ;IN128
TEXT 128 256 Left 2 ;AD620
TEXT 184 -120 Left 2 !.include lib/sub/TL084.lib
TEXT 184 -8 Left 2 !.ac dec 20 0.1 10k
TEXT 568 440 Left 2 ;60HZ NOTCH FILTER
